/*--------------------------------*- C++ -*----------------------------------*\
| =========                 |                                                 |
| \\      /  F ield         | OpenFOAM: The Open Source CFD Toolbox           |
|  \\    /   O peration     | Version:  2306                                  |
|   \\  /    A nd           | Website:  www.openfoam.com                      |
|    \\/     M anipulation  |                                                 |
\*---------------------------------------------------------------------------*/
FoamFile
{
    version     2.0;
    format      ascii;
    arch        "LSB;label=32;scalar=64";
    class       polyBoundaryMesh;
    location    "1/electrolyte/polyMesh";
    object      boundary;
}
// * * * * * * * * * * * * * * * * * * * * * * * * * * * * * * * * * * * * * //

3
(
    electrolyteSides
    {
        type            patch;
        nFaces          600;
        startFace       10900;
    }
    electrolyte_to_fuel
    {
        type            mappedWall;
        inGroups        1(wall);
        nFaces          800;
        startFace       11500;
        sampleMode      nearestPatchFace;
        sampleRegion    fuel;
        samplePatch     fuel_to_electrolyte;
    }
    electrolyte_to_air
    {
        type            mappedWall;
        inGroups        1(wall);
        nFaces          800;
        startFace       12300;
        sampleMode      nearestPatchFace;
        sampleRegion    air;
        samplePatch     air_to_electrolyte;
    }
)

// ************************************************************************* //
