/*--------------------------------*- C++ -*----------------------------------*\
| =========                 |                                                 |
| \\      /  F ield         | OpenFOAM: The Open Source CFD Toolbox           |
|  \\    /   O peration     | Version:  2306                                  |
|   \\  /    A nd           | Website:  www.openfoam.com                      |
|    \\/     M anipulation  |                                                 |
\*---------------------------------------------------------------------------*/
FoamFile
{
    version     2.0;
    format      ascii;
    arch        "LSB;label=32;scalar=64";
    class       polyBoundaryMesh;
    location    "1/phiEA/polyMesh";
    object      boundary;
}
// * * * * * * * * * * * * * * * * * * * * * * * * * * * * * * * * * * * * * //

4
(
    interconnectSides
    {
        type            patch;
        nFaces          1600;
        startFace       56700;
    }
    anodeSides
    {
        type            patch;
        nFaces          1800;
        startFace       58300;
    }
    interconnect1
    {
        type            patch;
        nFaces          800;
        startFace       60100;
    }
    phiEA_to_phiE0
    {
        type            mappedWall;
        inGroups        1(wall);
        nFaces          2400;
        startFace       60900;
        sampleMode      nearestPatchFace;
        sampleRegion    phiE0;
        samplePatch     phiE0_to_phiEA;
    }
)

// ************************************************************************* //
