/*--------------------------------*- C++ -*----------------------------------*\
| =========                 |                                                 |
| \\      /  F ield         | OpenFOAM: The Open Source CFD Toolbox           |
|  \\    /   O peration     | Version:  2306                                  |
|   \\  /    A nd           | Website:  www.openfoam.com                      |
|    \\/     M anipulation  |                                                 |
\*---------------------------------------------------------------------------*/
FoamFile
{
    version     2.0;
    format      ascii;
    arch        "LSB;label=32;scalar=64";
    class       polyBoundaryMesh;
    location    "1/phiI/polyMesh";
    object      boundary;
}
// * * * * * * * * * * * * * * * * * * * * * * * * * * * * * * * * * * * * * //

4
(
    cathodeSides
    {
        type            patch;
        nFaces          600;
        startFace       34300;
    }
    electrolyteSides
    {
        type            patch;
        nFaces          600;
        startFace       34900;
    }
    anodeSides
    {
        type            patch;
        nFaces          600;
        startFace       35500;
    }
    phiI_to_phiI0
    {
        type            mappedWall;
        inGroups        1(wall);
        nFaces          1600;
        startFace       36100;
        sampleMode      nearestPatchFace;
        sampleRegion    phiI0;
        samplePatch     phiI0_to_phiI;
    }
)

// ************************************************************************* //
