/*--------------------------------*- C++ -*----------------------------------*\
| =========                 |                                                 |
| \\      /  F ield         | OpenFOAM: The Open Source CFD Toolbox           |
|  \\    /   O peration     | Version:  2306                                  |
|   \\  /    A nd           | Website:  www.openfoam.com                      |
|    \\/     M anipulation  |                                                 |
\*---------------------------------------------------------------------------*/
FoamFile
{
    version     2.0;
    format      ascii;
    arch        "LSB;label=32;scalar=64";
    class       polyBoundaryMesh;
    location    "constant/polyMesh";
    object      boundary;
}
// * * * * * * * * * * * * * * * * * * * * * * * * * * * * * * * * * * * * * //

10
(
    interconnect0
    {
        type            patch;
        nFaces          800;
        startFace       151300;
    }
    interconnectSides
    {
        type            patch;
        nFaces          3200;
        startFace       152100;
    }
    airInlet
    {
        type            patch;
        nFaces          100;
        startFace       155300;
    }
    airOutlet
    {
        type            patch;
        nFaces          100;
        startFace       155400;
    }
    cathodeSides
    {
        type            patch;
        nFaces          1800;
        startFace       155500;
    }
    electrolyteSides
    {
        type            patch;
        nFaces          600;
        startFace       157300;
    }
    anodeSides
    {
        type            patch;
        nFaces          1800;
        startFace       157900;
    }
    fuelInlet
    {
        type            patch;
        nFaces          100;
        startFace       159700;
    }
    fuelOutlet
    {
        type            patch;
        nFaces          100;
        startFace       159800;
    }
    interconnect1
    {
        type            patch;
        nFaces          800;
        startFace       159900;
    }
)

// ************************************************************************* //
