/*--------------------------------*- C++ -*----------------------------------*\
| =========                 |                                                 |
| \\      /  F ield         | OpenFOAM: The Open Source CFD Toolbox           |
|  \\    /   O peration     | Version:  2306                                  |
|   \\  /    A nd           | Website:  www.openfoam.com                      |
|    \\/     M anipulation  |                                                 |
\*---------------------------------------------------------------------------*/
FoamFile
{
    version     2.0;
    format      ascii;
    arch        "LSB;label=32;scalar=64";
    class       polyBoundaryMesh;
    location    "1/fuel/polyMesh";
    object      boundary;
}
// * * * * * * * * * * * * * * * * * * * * * * * * * * * * * * * * * * * * * //

5
(
    anodeSides
    {
        type            patch;
        nFaces          1800;
        startFace       45800;
    }
    fuelInlet
    {
        type            patch;
        nFaces          100;
        startFace       47600;
    }
    fuelOutlet
    {
        type            patch;
        nFaces          100;
        startFace       47700;
    }
    fuel_to_electrolyte
    {
        type            mappedWall;
        inGroups        1(wall);
        nFaces          800;
        startFace       47800;
        sampleMode      nearestPatchFace;
        sampleRegion    electrolyte;
        samplePatch     electrolyte_to_fuel;
    }
    fuel_to_interconnect
    {
        type            mappedWall;
        inGroups        1(wall);
        nFaces          1600;
        startFace       48600;
        sampleMode      nearestPatchFace;
        sampleRegion    interconnect;
        samplePatch     interconnect_to_fuel;
    }
)

// ************************************************************************* //
